NOVO24/1726537/Trafos.dss
! ==========================================================
! TRANSFORMADORES DE DISTRIBUICAO — gerados de UNTRMT/EQTRMT
! Secundario 1F/2F: 3 enrolamentos com derivacao central
! Neutro no no 4, aterrado em _ATERRAMENTO.dss
! Kv de BT conforme TEN_LIN_SE da BDGD
! ==========================================================
New Transformer.324833306_1051441723 phases=3 windings=2 Xhl=4.900
~ wdg=1 bus=node_425179922.1.2.3 conn=delta Kv=13.8 Kva=300.0 %R=0.495
~ wdg=2 bus=node_410082943.1.2.3.4 conn=wye Kv=0.2200 Kva=300.0 %R=0.495
New Transformer.325089240_913436997 phases=3 windings=2 Xhl=4.900
~ wdg=1 bus=node_425066774.1.2.3 conn=delta Kv=13.8 Kva=300.0 %R=0.495
~ wdg=2 bus=node_412278063.1.2.3.4 conn=wye Kv=0.2200 Kva=300.0 %R=0.495
New Transformer.462412274_1261937896 phases=3 windings=2 Xhl=4.900
~ wdg=1 bus=node_425327747.1.2.3 conn=delta Kv=13.8 Kva=300.0 %R=0.495
~ wdg=2 bus=node_410020535.1.2.3.4 conn=wye Kv=0.2200 Kva=300.0 %R=0.495
New Transformer.416883096_416883095 phases=3 windings=2 Xhl=4.890
~ wdg=1 bus=node_695739680.1.2.3 conn=delta Kv=13.8 Kva=225.0 %R=0.530
~ wdg=2 bus=node_695739672.1.2.3.4 conn=wye Kv=0.2200 Kva=225.0 %R=0.530
New Transformer.2657306445_2657306444 phases=3 windings=2 Xhl=4.960
~ wdg=1 bus=node_2977975035.1.2.3 conn=delta Kv=13.8 Kva=150.0 %R=0.305
~ wdg=2 bus=node_2977975014.1.2.3.4 conn=wye Kv=0.2200 Kva=150.0 %R=0.305
New Transformer.324521917_1698736598 phases=3 windings=2 Xhl=3.840
~ wdg=1 bus=node_435908014.1.2.3 conn=delta Kv=13.8 Kva=150.0 %R=0.565
~ wdg=2 bus=node_445482826.1.2.3.4 conn=wye Kv=0.2200 Kva=150.0 %R=0.565
New Transformer.324521821_325484048 phases=3 windings=2 Xhl=3.840
~ wdg=1 bus=node_425327797.1.2.3 conn=delta Kv=13.8 Kva=150.0 %R=0.565
~ wdg=2 bus=node_407554277.1.2.3.4 conn=wye Kv=0.2200 Kva=150.0 %R=0.565
New Transformer.324520827_802643068 phases=3 windings=2 Xhl=3.840
~ wdg=1 bus=node_425179177.1.2.3 conn=delta Kv=13.8 Kva=150.0 %R=0.565
~ wdg=2 bus=node_411640398.1.2.3.4 conn=wye Kv=0.2200 Kva=150.0 %R=0.565
New Transformer.324520377_325394572 phases=3 windings=2 Xhl=3.840
~ wdg=1 bus=node_424131507.1.2.3 conn=delta Kv=13.8 Kva=150.0 %R=0.565
~ wdg=2 bus=node_512895764.1.2.3.4 conn=wye Kv=0.2200 Kva=150.0 %R=0.565
New Transformer.324206807_692008158 phases=3 windings=2 Xhl=3.840
~ wdg=1 bus=node_425179427.1.2.3 conn=delta Kv=13.8 Kva=150.0 %R=0.565
~ wdg=2 bus=node_411831387.1.2.3.4 conn=wye Kv=0.2200 Kva=150.0 %R=0.565
New Transformer.1421369862_1421369861 phases=3 windings=2 Xhl=3.840
~ wdg=1 bus=node_1718093830.1.2.3 conn=delta Kv=13.8 Kva=150.0 %R=0.565
~ wdg=2 bus=node_1718093816.1.2.3.4 conn=wye Kv=0.2200 Kva=150.0 %R=0.565
New Transformer.324686437_325446339 phases=3 windings=2 Xhl=3.840
~ wdg=1 bus=node_425328732.1.2.3 conn=delta Kv=13.8 Kva=150.0 %R=0.565
~ wdg=2 bus=node_408848810.1.2.3.4 conn=wye Kv=0.2200 Kva=150.0 %R=0.565
New Transformer.324683665_1367647673 phases=3 windings=2 Xhl=3.840
~ wdg=1 bus=node_427533005.1.2.3 conn=delta Kv=13.8 Kva=150.0 %R=0.565
~ wdg=2 bus=node_420926545.1.2.3.4 conn=wye Kv=0.2200 Kva=150.0 %R=0.565
New Transformer.324682870_325469930 phases=3 windings=2 Xhl=3.840
~ wdg=1 bus=node_424131740.1.2.3 conn=delta Kv=13.8 Kva=150.0 %R=0.565
~ wdg=2 bus=node_513055541.1.2.3.4 conn=wye Kv=0.2200 Kva=150.0 %R=0.565
New Transformer.920517697_920517696 phases=3 windings=2 Xhl=3.840
~ wdg=1 bus=node_1180257468.1.2.3 conn=delta Kv=13.8 Kva=150.0 %R=0.565
~ wdg=2 bus=node_1180257446.1.2.3.4 conn=wye Kv=0.2200 Kva=150.0 %R=0.565
New Transformer.325089972_325372135 phases=3 windings=2 Xhl=3.840
~ wdg=1 bus=node_425328012.1.2.3 conn=delta Kv=13.8 Kva=150.0 %R=0.565
~ wdg=2 bus=node_411516798.1.2.3.4 conn=wye Kv=0.2200 Kva=150.0 %R=0.565
New Transformer.662723140_662723139 phases=3 windings=2 Xhl=3.840
~ wdg=1 bus=node_933867899.1.2.3 conn=delta Kv=13.8 Kva=150.0 %R=0.565
~ wdg=2 bus=node_933867945.1.2.3.4 conn=wye Kv=0.2200 Kva=150.0 %R=0.565
New Transformer.1115486899_1115486898 phases=3 windings=2 Xhl=3.840
~ wdg=1 bus=node_424133285.1.2.3 conn=delta Kv=13.8 Kva=150.0 %R=0.565
~ wdg=2 bus=node_1384875522.1.2.3.4 conn=wye Kv=0.2200 Kva=150.0 %R=0.565
New Transformer.325087669_2172918590 phases=3 windings=2 Xhl=3.840
~ wdg=1 bus=node_427352554.1.2.3 conn=delta Kv=13.8 Kva=150.0 %R=0.565
~ wdg=2 bus=node_407553890.1.2.3.4 conn=wye Kv=0.2200 Kva=150.0 %R=0.565
New Transformer.324959255_1494724293 phases=3 windings=2 Xhl=3.840
~ wdg=1 bus=node_425327412.1.2.3 conn=delta Kv=13.8 Kva=150.0 %R=0.565
~ wdg=2 bus=node_409895108.1.2.3.4 conn=wye Kv=0.2200 Kva=150.0 %R=0.565
New Transformer.324836078_325394315 phases=3 windings=2 Xhl=3.840
~ wdg=1 bus=node_425327082.1.2.3 conn=delta Kv=13.8 Kva=150.0 %R=0.565
~ wdg=2 bus=node_408025492.1.2.3.4 conn=wye Kv=0.2200 Kva=150.0 %R=0.565
New Transformer.324835041_325469947 phases=3 windings=2 Xhl=3.840
~ wdg=1 bus=node_424132301.1.2.3 conn=delta Kv=13.8 Kva=150.0 %R=0.565
~ wdg=2 bus=node_464617321.1.2.3.4 conn=wye Kv=0.2200 Kva=150.0 %R=0.565
New Transformer.324833570_325442846 phases=3 windings=2 Xhl=3.840
~ wdg=1 bus=node_430125534.1.2.3 conn=delta Kv=13.8 Kva=150.0 %R=0.565
~ wdg=2 bus=node_418738523.1.2.3.4 conn=wye Kv=0.2200 Kva=150.0 %R=0.565
New Transformer.324833050_1837325308 phases=3 windings=2 Xhl=3.840
~ wdg=1 bus=node_424839206.1.2.3 conn=delta Kv=13.8 Kva=150.0 %R=0.565
~ wdg=2 bus=node_2238032824.1.2.3.4 conn=wye Kv=0.2200 Kva=150.0 %R=0.565
New Transformer.324958378_325481455 phases=3 windings=2 Xhl=3.840
~ wdg=1 bus=node_430123309.1.2.3 conn=delta Kv=13.8 Kva=112.5 %R=0.565
~ wdg=2 bus=node_418527852.1.2.3.4 conn=wye Kv=0.2200 Kva=112.5 %R=0.565
New Transformer.324682996_325370834 phases=3 windings=2 Xhl=3.840
~ wdg=1 bus=node_424133780.1.2.3 conn=delta Kv=13.8 Kva=112.5 %R=0.565
~ wdg=2 bus=node_418468884.1.2.3.4 conn=wye Kv=0.2200 Kva=112.5 %R=0.565
New Transformer.324521306_325481462 phases=3 windings=2 Xhl=3.840
~ wdg=1 bus=node_430124293.1.2.3 conn=delta Kv=13.8 Kva=112.5 %R=0.565
~ wdg=2 bus=node_418468926.1.2.3.4 conn=wye Kv=0.2200 Kva=112.5 %R=0.565
New Transformer.324832769_325480919 phases=3 windings=2 Xhl=3.770
~ wdg=1 bus=node_425327796.1.2.3 conn=delta Kv=13.8 Kva=75.0 %R=0.670
~ wdg=2 bus=node_407554145.1.2.3.4 conn=wye Kv=0.2200 Kva=75.0 %R=0.670
New Transformer.324832781_325484634 phases=3 windings=2 Xhl=3.770
~ wdg=1 bus=node_424837958.1.2.3 conn=delta Kv=13.8 Kva=75.0 %R=0.670
~ wdg=2 bus=node_404861856.1.2.3.4 conn=wye Kv=0.2200 Kva=75.0 %R=0.670
New Transformer.324833386_325483841 phases=3 windings=2 Xhl=3.770
~ wdg=1 bus=node_435909364.1.2.3 conn=delta Kv=13.8 Kva=75.0 %R=0.670
~ wdg=2 bus=node_418561443.1.2.3.4 conn=wye Kv=0.2200 Kva=75.0 %R=0.670
New Transformer.324833435_325484521 phases=3 windings=2 Xhl=3.770
~ wdg=1 bus=node_427355112.1.2.3 conn=delta Kv=13.8 Kva=75.0 %R=0.670
~ wdg=2 bus=node_407553674.1.2.3.4 conn=wye Kv=0.2200 Kva=75.0 %R=0.670
New Transformer.324833590_325394317 phases=3 windings=2 Xhl=3.770
~ wdg=1 bus=node_433996500.1.2.3 conn=delta Kv=13.8 Kva=75.0 %R=0.670
~ wdg=2 bus=node_408025225.1.2.3.4 conn=wye Kv=0.2200 Kva=75.0 %R=0.670
New Transformer.988904411_988904416 phases=3 windings=2 Xhl=3.770
~ wdg=1 bus=node_1250800379.1.2.3 conn=delta Kv=13.8 Kva=75.0 %R=0.670
~ wdg=2 bus=node_1250800168.1.2.3.4 conn=wye Kv=0.2200 Kva=75.0 %R=0.670
New Transformer.324957254_325443668 phases=3 windings=2 Xhl=3.770
~ wdg=1 bus=node_435564500.1.2.3 conn=delta Kv=13.8 Kva=75.0 %R=0.670
~ wdg=2 bus=node_407553695.1.2.3.4 conn=wye Kv=0.2200 Kva=75.0 %R=0.670
New Transformer.324957099_325484332 phases=3 windings=2 Xhl=3.770
~ wdg=1 bus=node_433996415.1.2.3 conn=delta Kv=13.8 Kva=75.0 %R=0.670
~ wdg=2 bus=node_411149515.1.2.3.4 conn=wye Kv=0.2200 Kva=75.0 %R=0.670
New Transformer.324834446_325481511 phases=3 windings=2 Xhl=3.770
~ wdg=1 bus=node_435733364.1.2.3 conn=delta Kv=13.8 Kva=75.0 %R=0.670
~ wdg=2 bus=node_407553698.1.2.3.4 conn=wye Kv=0.2200 Kva=75.0 %R=0.670
New Transformer.324957298_325370827 phases=3 windings=2 Xhl=3.770
~ wdg=1 bus=node_430124053.1.2.3 conn=delta Kv=13.8 Kva=75.0 %R=0.670
~ wdg=2 bus=node_418528038.1.2.3.4 conn=wye Kv=0.2200 Kva=75.0 %R=0.670
New Transformer.324957202_325484629 phases=3 windings=2 Xhl=3.770
~ wdg=1 bus=node_430124622.1.2.3 conn=delta Kv=13.8 Kva=75.0 %R=0.670
~ wdg=2 bus=node_418470996.1.2.3.4 conn=wye Kv=0.2200 Kva=75.0 %R=0.670
New Transformer.324834773_325394228 phases=3 windings=2 Xhl=3.770
~ wdg=1 bus=node_424132766.1.2.3 conn=delta Kv=13.8 Kva=75.0 %R=0.670
~ wdg=2 bus=node_407847691.1.2.3.4 conn=wye Kv=0.2200 Kva=75.0 %R=0.670
New Transformer.324834857_325419774 phases=3 windings=2 Xhl=3.770
~ wdg=1 bus=node_427679484.1.2.3 conn=delta Kv=13.8 Kva=75.0 %R=0.670
~ wdg=2 bus=node_407845330.1.2.3.4 conn=wye Kv=0.2200 Kva=75.0 %R=0.670
New Transformer.324834910_325470962 phases=3 windings=2 Xhl=3.770
~ wdg=1 bus=node_425179252.1.2.3 conn=delta Kv=13.8 Kva=75.0 %R=0.670
~ wdg=2 bus=node_420060229.1.2.3.4 conn=wye Kv=0.2200 Kva=75.0 %R=0.670
New Transformer.324957666_325394241 phases=3 windings=2 Xhl=3.770
~ wdg=1 bus=node_425326962.1.2.3 conn=delta Kv=13.8 Kva=75.0 %R=0.670
~ wdg=2 bus=node_407554442.1.2.3.4 conn=wye Kv=0.2200 Kva=75.0 %R=0.670
New Transformer.324835104_325419858 phases=3 windings=2 Xhl=3.770
~ wdg=1 bus=node_436564971.1.2.3 conn=delta Kv=13.8 Kva=75.0 %R=0.670
~ wdg=2 bus=node_407845822.1.2.3.4 conn=wye Kv=0.2200 Kva=75.0 %R=0.670
New Transformer.324957706_325420376 phases=3 windings=2 Xhl=3.770
~ wdg=1 bus=node_424838682.1.2.3 conn=delta Kv=13.8 Kva=75.0 %R=0.670
~ wdg=2 bus=node_404861853.1.2.3.4 conn=wye Kv=0.2200 Kva=75.0 %R=0.670
New Transformer.324957833_325444189 phases=3 windings=2 Xhl=3.770
~ wdg=1 bus=node_425328257.1.2.3 conn=delta Kv=13.8 Kva=75.0 %R=0.670
~ wdg=2 bus=node_410020655.1.2.3.4 conn=wye Kv=0.2200 Kva=75.0 %R=0.670
New Transformer.324957944_2709192217 phases=3 windings=2 Xhl=4.960
~ wdg=1 bus=node_435907119.1.2.3 conn=delta Kv=13.8 Kva=75.0 %R=0.305
~ wdg=2 bus=node_407555630.1.2.3.4 conn=wye Kv=0.2200 Kva=75.0 %R=0.305
New Transformer.324957934_2606795415 phases=3 windings=2 Xhl=3.770
~ wdg=1 bus=node_442088690.1.2.3 conn=delta Kv=13.8 Kva=75.0 %R=0.670
~ wdg=2 bus=node_407845903.1.2.3.4 conn=wye Kv=0.2200 Kva=75.0 %R=0.670
New Transformer.324957956_325373487 phases=3 windings=2 Xhl=3.770
~ wdg=1 bus=node_424837713.1.2.3 conn=delta Kv=13.8 Kva=75.0 %R=0.670
~ wdg=2 bus=node_411683237.1.2.3.4 conn=wye Kv=0.2200 Kva=75.0 %R=0.670
New Transformer.324957988_325470778 phases=3 windings=2 Xhl=3.770
~ wdg=1 bus=node_425327502.1.2.3 conn=delta Kv=13.8 Kva=75.0 %R=0.670
~ wdg=2 bus=node_408470476.1.2.3.4 conn=wye Kv=0.2200 Kva=75.0 %R=0.670
New Transformer.324835264_1191619352 phases=3 windings=2 Xhl=3.770
~ wdg=1 bus=node_436074304.1.2.3 conn=delta Kv=13.8 Kva=75.0 %R=0.670
~ wdg=2 bus=node_409346634.1.2.3.4 conn=wye Kv=0.2200 Kva=75.0 %R=0.670
New Transformer.324958203_325371885 phases=3 windings=2 Xhl=3.770
~ wdg=1 bus=node_433830054.1.2.3 conn=delta Kv=13.8 Kva=75.0 %R=0.670
~ wdg=2 bus=node_419262620.1.2.3.4 conn=wye Kv=0.2200 Kva=75.0 %R=0.670
New Transformer.324835453_325417058 phases=3 windings=2 Xhl=3.770
~ wdg=1 bus=node_427354083.1.2.3 conn=delta Kv=13.8 Kva=75.0 %R=0.670
~ wdg=2 bus=node_411755974.1.2.3.4 conn=wye Kv=0.2200 Kva=75.0 %R=0.670
New Transformer.324958165_325393628 phases=3 windings=2 Xhl=3.770
~ wdg=1 bus=node_430481951.1.2.3 conn=delta Kv=13.8 Kva=75.0 %R=0.670
~ wdg=2 bus=node_407555606.1.2.3.4 conn=wye Kv=0.2200 Kva=75.0 %R=0.670
New Transformer.324835245_325443629 phases=3 windings=2 Xhl=3.770
~ wdg=1 bus=node_435906484.1.2.3 conn=delta Kv=13.8 Kva=75.0 %R=0.670
~ wdg=2 bus=node_418497936.1.2.3.4 conn=wye Kv=0.2200 Kva=75.0 %R=0.670
New Transformer.324835693_325420382 phases=3 windings=2 Xhl=3.770
~ wdg=1 bus=node_424132931.1.2.3 conn=delta Kv=13.8 Kva=75.0 %R=0.670
~ wdg=2 bus=node_404862282.1.2.3.4 conn=wye Kv=0.2200 Kva=75.0 %R=0.670
New Transformer.324958376_325442903 phases=3 windings=2 Xhl=3.770
~ wdg=1 bus=node_425179302.1.2.3 conn=delta Kv=13.8 Kva=75.0 %R=0.670
~ wdg=2 bus=node_407555876.1.2.3.4 conn=wye Kv=0.2200 Kva=75.0 %R=0.670
New Transformer.324835816_325390871 phases=3 windings=2 Xhl=3.770
~ wdg=1 bus=node_425067044.1.2.3 conn=delta Kv=13.8 Kva=75.0 %R=0.670
~ wdg=2 bus=node_411621518.1.2.3.4 conn=wye Kv=0.2200 Kva=75.0 %R=0.670
New Transformer.324835830_325481469 phases=3 windings=2 Xhl=3.770
~ wdg=1 bus=node_424838123.1.2.3 conn=delta Kv=13.8 Kva=75.0 %R=0.670
~ wdg=2 bus=node_404861868.1.2.3.4 conn=wye Kv=0.2200 Kva=75.0 %R=0.670
New Transformer.324835497_1730808344 phases=3 windings=2 Xhl=3.770
~ wdg=1 bus=node_436566091.1.2.3 conn=delta Kv=13.8 Kva=75.0 %R=0.670
~ wdg=2 bus=node_408027301.1.2.3.4 conn=wye Kv=0.2200 Kva=75.0 %R=0.670
New Transformer.324958552_325373455 phases=3 windings=2 Xhl=3.770
~ wdg=1 bus=node_436566061.1.2.3 conn=delta Kv=13.8 Kva=75.0 %R=0.670
~ wdg=2 bus=node_409130368.1.2.3.4 conn=wye Kv=0.2200 Kva=75.0 %R=0.670
New Transformer.324958663_325370083 phases=3 windings=2 Xhl=3.770
~ wdg=1 bus=node_435733359.1.2.3 conn=delta Kv=13.8 Kva=75.0 %R=0.670
~ wdg=2 bus=node_407556212.1.2.3.4 conn=wye Kv=0.2200 Kva=75.0 %R=0.670
New Transformer.324958860_325373528 phases=3 windings=2 Xhl=3.770
~ wdg=1 bus=node_435732964.1.2.3 conn=delta Kv=13.8 Kva=75.0 %R=0.670
~ wdg=2 bus=node_408846296.1.2.3.4 conn=wye Kv=0.2200 Kva=75.0 %R=0.670
New Transformer.324835982_325370830 phases=3 windings=2 Xhl=3.770
~ wdg=1 bus=node_430124183.1.2.3 conn=delta Kv=13.8 Kva=75.0 %R=0.670
~ wdg=2 bus=node_418468329.1.2.3.4 conn=wye Kv=0.2200 Kva=75.0 %R=0.670
New Transformer.324959058_325484433 phases=3 windings=2 Xhl=3.770
~ wdg=1 bus=node_424101159.1.2.3 conn=delta Kv=13.8 Kva=75.0 %R=0.670
~ wdg=2 bus=node_418742255.1.2.3.4 conn=wye Kv=0.2200 Kva=75.0 %R=0.670
New Transformer.324836282_325394383 phases=3 windings=2 Xhl=3.770
~ wdg=1 bus=node_425326802.1.2.3 conn=delta Kv=13.8 Kva=75.0 %R=0.670
~ wdg=2 bus=node_407554205.1.2.3.4 conn=wye Kv=0.2200 Kva=75.0 %R=0.670
New Transformer.324836350_1424616391 phases=3 windings=2 Xhl=3.770
~ wdg=1 bus=node_435733384.1.2.3 conn=delta Kv=13.8 Kva=75.0 %R=0.670
~ wdg=2 bus=node_411831705.1.2.3.4 conn=wye Kv=0.2200 Kva=75.0 %R=0.670
New Transformer.325085992_325446288 phases=3 windings=2 Xhl=3.770
~ wdg=1 bus=node_427354137.1.2.3 conn=delta Kv=13.8 Kva=75.0 %R=0.670
~ wdg=2 bus=node_411709822.1.2.3.4 conn=wye Kv=0.2200 Kva=75.0 %R=0.670
New Transformer.324959095_325443540 phases=3 windings=2 Xhl=3.770
~ wdg=1 bus=node_424132906.1.2.3 conn=delta Kv=13.8 Kva=75.0 %R=0.670
~ wdg=2 bus=node_407554808.1.2.3.4 conn=wye Kv=0.2200 Kva=75.0 %R=0.670
New Transformer.324959306_325418296 phases=3 windings=2 Xhl=3.770
~ wdg=1 bus=node_430125097.1.2.3 conn=delta Kv=13.8 Kva=75.0 %R=0.670
~ wdg=2 bus=node_420003525.1.2.3.4 conn=wye Kv=0.2200 Kva=75.0 %R=0.670
New Transformer.324836319_325394256 phases=3 windings=2 Xhl=3.770
~ wdg=1 bus=node_424838787.1.2.3 conn=delta Kv=13.8 Kva=75.0 %R=0.670
~ wdg=2 bus=node_407847706.1.2.3.4 conn=wye Kv=0.2200 Kva=75.0 %R=0.670
New Transformer.324959247_325392666 phases=3 windings=2 Xhl=3.770
~ wdg=1 bus=node_435562206.1.2.3 conn=delta Kv=13.8 Kva=75.0 %R=0.670
~ wdg=2 bus=node_408025231.1.2.3.4 conn=wye Kv=0.2200 Kva=75.0 %R=0.670
New Transformer.324836612_325469668 phases=3 windings=2 Xhl=3.770
~ wdg=1 bus=node_425328302.1.2.3 conn=delta Kv=13.8 Kva=75.0 %R=0.670
~ wdg=2 bus=node_407554514.1.2.3.4 conn=wye Kv=0.2200 Kva=75.0 %R=0.670
New Transformer.324959465_325484588 phases=3 windings=2 Xhl=3.770
~ wdg=1 bus=node_435413140.1.2.3 conn=delta Kv=13.8 Kva=75.0 %R=0.670
~ wdg=2 bus=node_407988956.1.2.3.4 conn=wye Kv=0.2200 Kva=75.0 %R=0.670
New Transformer.324959560_325420365 phases=3 windings=2 Xhl=3.770
~ wdg=1 bus=node_424131911.1.2.3 conn=delta Kv=13.8 Kva=75.0 %R=0.670
~ wdg=2 bus=node_407555576.1.2.3.4 conn=wye Kv=0.2200 Kva=75.0 %R=0.670
New Transformer.325086240_325481458 phases=3 windings=2 Xhl=3.770
~ wdg=1 bus=node_424837418.1.2.3 conn=delta Kv=13.8 Kva=75.0 %R=0.670
~ wdg=2 bus=node_418528098.1.2.3.4 conn=wye Kv=0.2200 Kva=75.0 %R=0.670
New Transformer.324959548_325481435 phases=3 windings=2 Xhl=3.770
~ wdg=1 bus=node_433483509.1.2.3 conn=delta Kv=13.8 Kva=75.0 %R=0.670
~ wdg=2 bus=node_407989058.1.2.3.4 conn=wye Kv=0.2200 Kva=75.0 %R=0.670
New Transformer.324959673_2151242484 phases=3 windings=2 Xhl=3.770
~ wdg=1 bus=node_425179412.1.2.3 conn=delta Kv=13.8 Kva=75.0 %R=0.670
~ wdg=2 bus=node_407919935.1.2.3.4 conn=wye Kv=0.2200 Kva=75.0 %R=0.670
New Transformer.324959636_325394630 phases=3 windings=2 Xhl=3.770
~ wdg=1 bus=node_430125302.1.2.3 conn=delta Kv=13.8 Kva=75.0 %R=0.670
~ wdg=2 bus=node_404862015.1.2.3.4 conn=wye Kv=0.2200 Kva=75.0 %R=0.670
New Transformer.324959704_325443580 phases=3 windings=2 Xhl=3.770
~ wdg=1 bus=node_427355477.1.2.3 conn=delta Kv=13.8 Kva=75.0 %R=0.670
~ wdg=2 bus=node_407989007.1.2.3.4 conn=wye Kv=0.2200 Kva=75.0 %R=0.670
New Transformer.324959740_325392617 phases=3 windings=2 Xhl=3.770
~ wdg=1 bus=node_424837938.1.2.3 conn=delta Kv=13.8 Kva=75.0 %R=0.670
~ wdg=2 bus=node_407845942.1.2.3.4 conn=wye Kv=0.2200 Kva=75.0 %R=0.670
New Transformer.324959929_2628773918 phases=3 windings=2 Xhl=3.770
~ wdg=1 bus=node_433673620.1.2.3 conn=delta Kv=13.8 Kva=75.0 %R=0.670
~ wdg=2 bus=node_407988572.1.2.3.4 conn=wye Kv=0.2200 Kva=75.0 %R=0.670
New Transformer.325086789_325472113 phases=3 windings=2 Xhl=3.770
~ wdg=1 bus=node_435733069.1.2.3 conn=delta Kv=13.8 Kva=75.0 %R=0.670
~ wdg=2 bus=node_411147091.1.2.3.4 conn=wye Kv=0.2200 Kva=75.0 %R=0.670
New Transformer.324960032_325392607 phases=3 windings=2 Xhl=3.770
~ wdg=1 bus=node_424837907.1.2.3 conn=delta Kv=13.8 Kva=75.0 %R=0.670
~ wdg=2 bus=node_404863611.1.2.3.4 conn=wye Kv=0.2200 Kva=75.0 %R=0.670
New Transformer.324959981_325420361 phases=3 windings=2 Xhl=3.770
~ wdg=1 bus=node_435731476.1.2.3 conn=delta Kv=13.8 Kva=75.0 %R=0.670
~ wdg=2 bus=node_407555687.1.2.3.4 conn=wye Kv=0.2200 Kva=75.0 %R=0.670
New Transformer.324960256_325392603 phases=3 windings=2 Xhl=3.770
~ wdg=1 bus=node_430125372.1.2.3 conn=delta Kv=13.8 Kva=75.0 %R=0.670
~ wdg=2 bus=node_404862789.1.2.3.4 conn=wye Kv=0.2200 Kva=75.0 %R=0.670
New Transformer.325087042_1522192960 phases=3 windings=2 Xhl=3.770
~ wdg=1 bus=node_436074309.1.2.3 conn=delta Kv=13.8 Kva=75.0 %R=0.670
~ wdg=2 bus=node_408844877.1.2.3.4 conn=wye Kv=0.2200 Kva=75.0 %R=0.670
New Transformer.324960434_325417628 phases=3 windings=2 Xhl=3.770
~ wdg=1 bus=node_424134683.1.2.3 conn=delta Kv=13.8 Kva=75.0 %R=0.670
~ wdg=2 bus=node_411830229.1.2.3.4 conn=wye Kv=0.2200 Kva=75.0 %R=0.670
New Transformer.324960429_325443669 phases=3 windings=2 Xhl=3.770
~ wdg=1 bus=node_427355442.1.2.3 conn=delta Kv=13.8 Kva=75.0 %R=0.670
~ wdg=2 bus=node_407554310.1.2.3.4 conn=wye Kv=0.2200 Kva=75.0 %R=0.670
New Transformer.324960928_325445340 phases=3 windings=2 Xhl=3.770
~ wdg=1 bus=node_427353788.1.2.3 conn=delta Kv=13.8 Kva=75.0 %R=0.670
~ wdg=2 bus=node_410085187.1.2.3.4 conn=wye Kv=0.2200 Kva=75.0 %R=0.670
New Transformer.324960874_325446342 phases=3 windings=2 Xhl=3.770
~ wdg=1 bus=node_436566086.1.2.3 conn=delta Kv=13.8 Kva=75.0 %R=0.670
~ wdg=2 bus=node_408910192.1.2.3.4 conn=wye Kv=0.2200 Kva=75.0 %R=0.670
New Transformer.325087463_325394016 phases=3 windings=2 Xhl=3.770
~ wdg=1 bus=node_433829005.1.2.3 conn=delta Kv=13.8 Kva=75.0 %R=0.670
~ wdg=2 bus=node_407986907.1.2.3.4 conn=wye Kv=0.2200 Kva=75.0 %R=0.670
New Transformer.324960972_325472169 phases=3 windings=2 Xhl=3.770
~ wdg=1 bus=node_424132106.1.2.3 conn=delta Kv=13.8 Kva=75.0 %R=0.670
~ wdg=2 bus=node_407555723.1.2.3.4 conn=wye Kv=0.2200 Kva=75.0 %R=0.670
New Transformer.325087626_325420507 phases=3 windings=2 Xhl=3.770
~ wdg=1 bus=node_435412916.1.2.3 conn=delta Kv=13.8 Kva=75.0 %R=0.670
~ wdg=2 bus=node_407553728.1.2.3.4 conn=wye Kv=0.2200 Kva=75.0 %R=0.670
New Transformer.325087738_325484550 phases=3 windings=2 Xhl=3.770
~ wdg=1 bus=node_424838933.1.2.3 conn=delta Kv=13.8 Kva=75.0 %R=0.670
~ wdg=2 bus=node_418706440.1.2.3.4 conn=wye Kv=0.2200 Kva=75.0 %R=0.670
New Transformer.324961087_325371477 phases=3 windings=2 Xhl=3.770
~ wdg=1 bus=node_425484095.1.2.3 conn=delta Kv=13.8 Kva=75.0 %R=0.670
~ wdg=2 bus=node_409953231.1.2.3.4 conn=wye Kv=0.2200 Kva=75.0 %R=0.670
New Transformer.324961140_325469178 phases=3 windings=2 Xhl=3.770
~ wdg=1 bus=node_436735067.1.2.3 conn=delta Kv=13.8 Kva=75.0 %R=0.670
~ wdg=2 bus=node_407846704.1.2.3.4 conn=wye Kv=0.2200 Kva=75.0 %R=0.670
New Transformer.324961188_325392624 phases=3 windings=2 Xhl=3.770
~ wdg=1 bus=node_424838873.1.2.3 conn=delta Kv=13.8 Kva=75.0 %R=0.670
~ wdg=2 bus=node_418706566.1.2.3.4 conn=wye Kv=0.2200 Kva=75.0 %R=0.670
New Transformer.325088050_325370081 phases=3 windings=2 Xhl=3.770
~ wdg=1 bus=node_435732525.1.2.3 conn=delta Kv=13.8 Kva=75.0 %R=0.670
~ wdg=2 bus=node_407918531.1.2.3.4 conn=wye Kv=0.2200 Kva=75.0 %R=0.670
New Transformer.325088322_325417371 phases=3 windings=2 Xhl=3.770
~ wdg=1 bus=node_427352589.1.2.3 conn=delta Kv=13.8 Kva=75.0 %R=0.670
~ wdg=2 bus=node_411640287.1.2.3.4 conn=wye Kv=0.2200 Kva=75.0 %R=0.670
New Transformer.1112455304_1112455303 phases=3 windings=2 Xhl=3.770
~ wdg=1 bus=node_1381517435.1.2.3 conn=delta Kv=13.8 Kva=75.0 %R=0.670
~ wdg=2 bus=node_1381517410.1.2.3.4 conn=wye Kv=0.2200 Kva=75.0 %R=0.670
New Transformer.325088333_325394021 phases=3 windings=2 Xhl=3.770
~ wdg=1 bus=node_436073689.1.2.3 conn=delta Kv=13.8 Kva=75.0 %R=0.670
~ wdg=2 bus=node_407920394.1.2.3.4 conn=wye Kv=0.2200 Kva=75.0 %R=0.670
New Transformer.325088878_325420471 phases=3 windings=2 Xhl=3.770
~ wdg=1 bus=node_435732035.1.2.3 conn=delta Kv=13.8 Kva=75.0 %R=0.670
~ wdg=2 bus=node_418471440.1.2.3.4 conn=wye Kv=0.2200 Kva=75.0 %R=0.670
New Transformer.325089294_325420405 phases=3 windings=2 Xhl=3.770
~ wdg=1 bus=node_433673625.1.2.3 conn=delta Kv=13.8 Kva=75.0 %R=0.670
~ wdg=2 bus=node_407988527.1.2.3.4 conn=wye Kv=0.2200 Kva=75.0 %R=0.670
New Transformer.325089616_325469347 phases=3 windings=2 Xhl=3.770
~ wdg=1 bus=node_433674765.1.2.3 conn=delta Kv=13.8 Kva=75.0 %R=0.670
~ wdg=2 bus=node_411640326.1.2.3.4 conn=wye Kv=0.2200 Kva=75.0 %R=0.670
New Transformer.325089829_325443538 phases=3 windings=2 Xhl=3.770
~ wdg=1 bus=node_435731181.1.2.3 conn=delta Kv=13.8 Kva=75.0 %R=0.670
~ wdg=2 bus=node_407556071.1.2.3.4 conn=wye Kv=0.2200 Kva=75.0 %R=0.670
New Transformer.325089762_325391858 phases=3 windings=2 Xhl=3.770
~ wdg=1 bus=node_436073649.1.2.3 conn=delta Kv=13.8 Kva=75.0 %R=0.670
~ wdg=2 bus=node_411146578.1.2.3.4 conn=wye Kv=0.2200 Kva=75.0 %R=0.670
New Transformer.325089908_325482437 phases=3 windings=2 Xhl=3.770
~ wdg=1 bus=node_425180047.1.2.3 conn=delta Kv=13.8 Kva=75.0 %R=0.670
~ wdg=2 bus=node_411988107.1.2.3.4 conn=wye Kv=0.2200 Kva=75.0 %R=0.670
New Transformer.325090039_325370850 phases=3 windings=2 Xhl=3.770
~ wdg=1 bus=node_427355562.1.2.3 conn=delta Kv=13.8 Kva=75.0 %R=0.670
~ wdg=2 bus=node_407847007.1.2.3.4 conn=wye Kv=0.2200 Kva=75.0 %R=0.670
New Transformer.849357530_849357529 phases=3 windings=2 Xhl=3.770
~ wdg=1 bus=node_1118213466.1.2.3 conn=delta Kv=13.8 Kva=75.0 %R=0.670
~ wdg=2 bus=node_1118213451.1.2.3.4 conn=wye Kv=0.2200 Kva=75.0 %R=0.670
New Transformer.325089388_325481490 phases=3 windings=2 Xhl=3.770
~ wdg=1 bus=node_435565525.1.2.3 conn=delta Kv=13.8 Kva=75.0 %R=0.670
~ wdg=2 bus=node_418497585.1.2.3.4 conn=wye Kv=0.2200 Kva=75.0 %R=0.670
New Transformer.873936501_873936500 phases=3 windings=2 Xhl=3.770
~ wdg=1 bus=node_434151808.1.2.3 conn=delta Kv=13.8 Kva=75.0 %R=0.670
~ wdg=2 bus=node_447332324.1.2.3.4 conn=wye Kv=0.2200 Kva=75.0 %R=0.670
New Transformer.872467866_872467865 phases=3 windings=2 Xhl=3.770
~ wdg=1 bus=node_1139631960.1.2.3 conn=delta Kv=13.8 Kva=75.0 %R=0.670
~ wdg=2 bus=node_1139631926.1.2.3.4 conn=wye Kv=0.2200 Kva=75.0 %R=0.670
New Transformer.905927506_905927505 phases=3 windings=2 Xhl=3.770
~ wdg=1 bus=node_1167239527.1.2.3 conn=delta Kv=13.8 Kva=75.0 %R=0.670
~ wdg=2 bus=node_1167239079.1.2.3.4 conn=wye Kv=0.2200 Kva=75.0 %R=0.670
New Transformer.905927532_905927537 phases=3 windings=2 Xhl=3.770
~ wdg=1 bus=node_1167239466.1.2.3 conn=delta Kv=13.8 Kva=75.0 %R=0.670
~ wdg=2 bus=node_1167238948.1.2.3.4 conn=wye Kv=0.2200 Kva=75.0 %R=0.670
New Transformer.905927559_905927564 phases=3 windings=2 Xhl=3.770
~ wdg=1 bus=node_1167239399.1.2.3 conn=delta Kv=13.8 Kva=75.0 %R=0.670
~ wdg=2 bus=node_1167238780.1.2.3.4 conn=wye Kv=0.2200 Kva=75.0 %R=0.670
New Transformer.905927586_905927591 phases=3 windings=2 Xhl=3.770
~ wdg=1 bus=node_1167239352.1.2.3 conn=delta Kv=13.8 Kva=75.0 %R=0.670
~ wdg=2 bus=node_1167238648.1.2.3.4 conn=wye Kv=0.2200 Kva=75.0 %R=0.670
New Transformer.324682390_325481451 phases=3 windings=2 Xhl=3.770
~ wdg=1 bus=node_424132851.1.2.3 conn=delta Kv=13.8 Kva=75.0 %R=0.670
~ wdg=2 bus=node_407554805.1.2.3.4 conn=wye Kv=0.2200 Kva=75.0 %R=0.670
New Transformer.324682399_325446239 phases=3 windings=2 Xhl=3.770
~ wdg=1 bus=node_436734187.1.2.3 conn=delta Kv=13.8 Kva=75.0 %R=0.670
~ wdg=2 bus=node_409265773.1.2.3.4 conn=wye Kv=0.2200 Kva=75.0 %R=0.670
New Transformer.324684303_325481449 phases=3 windings=2 Xhl=3.770
~ wdg=1 bus=node_2809358438.1.2.3 conn=delta Kv=13.8 Kva=75.0 %R=0.670
~ wdg=2 bus=node_2809358449.1.2.3.4 conn=wye Kv=0.2200 Kva=75.0 %R=0.670
New Transformer.324682852_325394268 phases=3 windings=2 Xhl=3.770
~ wdg=1 bus=node_1151419028.1.2.3 conn=delta Kv=13.8 Kva=75.0 %R=0.670
~ wdg=2 bus=node_447801953.1.2.3.4 conn=wye Kv=0.2200 Kva=75.0 %R=0.670
New Transformer.324684959_1005452982 phases=3 windings=2 Xhl=3.770
~ wdg=1 bus=node_436566641.1.2.3 conn=delta Kv=13.8 Kva=75.0 %R=0.670
~ wdg=2 bus=node_407917205.1.2.3.4 conn=wye Kv=0.2200 Kva=75.0 %R=0.670
New Transformer.324682645_325373321 phases=3 windings=2 Xhl=3.770
~ wdg=1 bus=node_435905699.1.2.3 conn=delta Kv=13.8 Kva=75.0 %R=0.670
~ wdg=2 bus=node_411830256.1.2.3.4 conn=wye Kv=0.2200 Kva=75.0 %R=0.670
New Transformer.324683036_325469742 phases=3 windings=2 Xhl=3.770
~ wdg=1 bus=node_426361651.1.2.3 conn=delta Kv=13.8 Kva=75.0 %R=0.670
~ wdg=2 bus=node_408025507.1.2.3.4 conn=wye Kv=0.2200 Kva=75.0 %R=0.670
New Transformer.324684984_325370861 phases=3 windings=2 Xhl=3.770
~ wdg=1 bus=node_427532305.1.2.3 conn=delta Kv=13.8 Kva=75.0 %R=0.670
~ wdg=2 bus=node_418497804.1.2.3.4 conn=wye Kv=0.2200 Kva=75.0 %R=0.670
New Transformer.324683066_325442927 phases=3 windings=2 Xhl=3.770
~ wdg=1 bus=node_442265200.1.2.3 conn=delta Kv=13.8 Kva=75.0 %R=0.670
~ wdg=2 bus=node_407844919.1.2.3.4 conn=wye Kv=0.2200 Kva=75.0 %R=0.670
New Transformer.324684646_1896861907 phases=3 windings=2 Xhl=3.770
~ wdg=1 bus=node_425327942.1.2.3 conn=delta Kv=13.8 Kva=75.0 %R=0.670
~ wdg=2 bus=node_409407070.1.2.3.4 conn=wye Kv=0.2200 Kva=75.0 %R=0.670
New Transformer.324684386_325469676 phases=3 windings=2 Xhl=3.770
~ wdg=1 bus=node_430124463.1.2.3 conn=delta Kv=13.8 Kva=75.0 %R=0.670
~ wdg=2 bus=node_418468134.1.2.3.4 conn=wye Kv=0.2200 Kva=75.0 %R=0.670
New Transformer.324684951_325370823 phases=3 windings=2 Xhl=3.770
~ wdg=1 bus=node_435565555.1.2.3 conn=delta Kv=13.8 Kva=75.0 %R=0.670
~ wdg=2 bus=node_407556032.1.2.3.4 conn=wye Kv=0.2200 Kva=75.0 %R=0.670
New Transformer.324684549_325394254 phases=3 windings=2 Xhl=3.770
~ wdg=1 bus=node_425327067.1.2.3 conn=delta Kv=13.8 Kva=75.0 %R=0.670
~ wdg=2 bus=node_404861841.1.2.3.4 conn=wye Kv=0.2200 Kva=75.0 %R=0.670
New Transformer.324684972_325394246 phases=3 windings=2 Xhl=3.770
~ wdg=1 bus=node_424133231.1.2.3 conn=delta Kv=13.8 Kva=75.0 %R=0.670
~ wdg=2 bus=node_418468833.1.2.3.4 conn=wye Kv=0.2200 Kva=75.0 %R=0.670
New Transformer.324684937_1430056881 phases=3 windings=2 Xhl=3.770
~ wdg=1 bus=node_426361551.1.2.3 conn=delta Kv=13.8 Kva=75.0 %R=0.670
~ wdg=2 bus=node_410184728.1.2.3.4 conn=wye Kv=0.2200 Kva=75.0 %R=0.670
New Transformer.324684860_325469654 phases=3 windings=2 Xhl=3.770
~ wdg=1 bus=node_424838673.1.2.3 conn=delta Kv=13.8 Kva=75.0 %R=0.670
~ wdg=2 bus=node_464479247.1.2.3.4 conn=wye Kv=0.2200 Kva=75.0 %R=0.670
New Transformer.324682329_325372060 phases=3 windings=2 Xhl=3.770
~ wdg=1 bus=node_435565999.1.2.3 conn=delta Kv=13.8 Kva=75.0 %R=0.670
~ wdg=2 bus=node_411686228.1.2.3.4 conn=wye Kv=0.2200 Kva=75.0 %R=0.670
New Transformer.324682493_325481475 phases=3 windings=2 Xhl=3.770
~ wdg=1 bus=node_424134509.1.2.3 conn=delta Kv=13.8 Kva=75.0 %R=0.670
~ wdg=2 bus=node_407846065.1.2.3.4 conn=wye Kv=0.2200 Kva=75.0 %R=0.670
New Transformer.324685438_1818916938 phases=3 windings=2 Xhl=3.770
~ wdg=1 bus=node_436399542.1.2.3 conn=delta Kv=13.8 Kva=75.0 %R=0.670
~ wdg=2 bus=node_407847451.1.2.3.4 conn=wye Kv=0.2200 Kva=75.0 %R=0.670
New Transformer.324683597_1170312525 phases=3 windings=2 Xhl=3.770
~ wdg=1 bus=node_425327617.1.2.3 conn=delta Kv=13.8 Kva=75.0 %R=0.670
~ wdg=2 bus=node_407846281.1.2.3.4 conn=wye Kv=0.2200 Kva=75.0 %R=0.670
New Transformer.324685076_325392370 phases=3 windings=2 Xhl=3.770
~ wdg=1 bus=node_433673335.1.2.3 conn=delta Kv=13.8 Kva=75.0 %R=0.670
~ wdg=2 bus=node_411148018.1.2.3.4 conn=wye Kv=0.2200 Kva=75.0 %R=0.670
New Transformer.324685752_325392608 phases=3 windings=2 Xhl=3.770
~ wdg=1 bus=node_424132791.1.2.3 conn=delta Kv=13.8 Kva=75.0 %R=0.670
~ wdg=2 bus=node_404861850.1.2.3.4 conn=wye Kv=0.2200 Kva=75.0 %R=0.670
New Transformer.324686066_325370821 phases=3 windings=2 Xhl=3.770
~ wdg=1 bus=node_424837768.1.2.3 conn=delta Kv=13.8 Kva=75.0 %R=0.670
~ wdg=2 bus=node_407554130.1.2.3.4 conn=wye Kv=0.2200 Kva=75.0 %R=0.670
New Transformer.324685794_325469803 phases=3 windings=2 Xhl=3.770
~ wdg=1 bus=node_425327902.1.2.3 conn=delta Kv=13.8 Kva=75.0 %R=0.670
~ wdg=2 bus=node_420973018.1.2.3.4 conn=wye Kv=0.2200 Kva=75.0 %R=0.670
New Transformer.1894740627_1894740626 phases=3 windings=2 Xhl=3.770
~ wdg=1 bus=node_2224163434.1.2.3 conn=delta Kv=13.8 Kva=75.0 %R=0.670
~ wdg=2 bus=node_2224163481.1.2.3.4 conn=wye Kv=0.2200 Kva=75.0 %R=0.670
New Transformer.324685711_325443639 phases=3 windings=2 Xhl=3.770
~ wdg=1 bus=node_433672650.1.2.3 conn=delta Kv=13.8 Kva=75.0 %R=0.670
~ wdg=2 bus=node_418497951.1.2.3.4 conn=wye Kv=0.2200 Kva=75.0 %R=0.670
New Transformer.324683801_325484241 phases=3 windings=2 Xhl=3.770
~ wdg=1 bus=node_435906894.1.2.3 conn=delta Kv=13.8 Kva=75.0 %R=0.670
~ wdg=2 bus=node_411146542.1.2.3.4 conn=wye Kv=0.2200 Kva=75.0 %R=0.670
New Transformer.324683475_325484638 phases=3 windings=2 Xhl=3.770
~ wdg=1 bus=node_424132711.1.2.3 conn=delta Kv=13.8 Kva=75.0 %R=0.670
~ wdg=2 bus=node_404863629.1.2.3.4 conn=wye Kv=0.2200 Kva=75.0 %R=0.670
New Transformer.324206121_325394318 phases=3 windings=2 Xhl=3.770
~ wdg=1 bus=node_435906164.1.2.3 conn=delta Kv=13.8 Kva=75.0 %R=0.670
~ wdg=2 bus=node_407989910.1.2.3.4 conn=wye Kv=0.2200 Kva=75.0 %R=0.670
New Transformer.324686308_1763313924 phases=3 windings=2 Xhl=3.770
~ wdg=1 bus=node_424131587.1.2.3 conn=delta Kv=13.8 Kva=75.0 %R=0.670
~ wdg=2 bus=node_412076486.1.2.3.4 conn=wye Kv=0.2200 Kva=75.0 %R=0.670
New Transformer.324206685_325469686 phases=3 windings=2 Xhl=3.770
~ wdg=1 bus=node_442088561.1.2.3 conn=delta Kv=13.8 Kva=75.0 %R=0.670
~ wdg=2 bus=node_404862816.1.2.3.4 conn=wye Kv=0.2200 Kva=75.0 %R=0.670
New Transformer.1437176219_1437176218 phases=3 windings=2 Xhl=3.770
~ wdg=1 bus=node_1733509507.1.2.3 conn=delta Kv=13.8 Kva=75.0 %R=0.670
~ wdg=2 bus=node_1733509524.1.2.3.4 conn=wye Kv=0.2200 Kva=75.0 %R=0.670
New Transformer.324206695_325469057 phases=3 windings=2 Xhl=3.770
~ wdg=1 bus=node_435733629.1.2.3 conn=delta Kv=13.8 Kva=75.0 %R=0.670
~ wdg=2 bus=node_418531113.1.2.3.4 conn=wye Kv=0.2200 Kva=75.0 %R=0.670
New Transformer.962633258_962633259 phases=3 windings=2 Xhl=3.770
~ wdg=1 bus=node_1224717532.1.2.3 conn=delta Kv=13.8 Kva=75.0 %R=0.670
~ wdg=2 bus=node_1224717505.1.2.3.4 conn=wye Kv=0.2200 Kva=75.0 %R=0.670
New Transformer.324206377_325481473 phases=3 windings=2 Xhl=3.770
~ wdg=1 bus=node_424134434.1.2.3 conn=delta Kv=13.8 Kva=75.0 %R=0.670
~ wdg=2 bus=node_407846128.1.2.3.4 conn=wye Kv=0.2200 Kva=75.0 %R=0.670
New Transformer.324206369_325420480 phases=3 windings=2 Xhl=3.770
~ wdg=1 bus=node_434151203.1.2.3 conn=delta Kv=13.8 Kva=75.0 %R=0.670
~ wdg=2 bus=node_410910651.1.2.3.4 conn=wye Kv=0.2200 Kva=75.0 %R=0.670
New Transformer.1911096629_1911096628 phases=3 windings=2 Xhl=3.770
~ wdg=1 bus=node_2234392114.1.2.3 conn=delta Kv=13.8 Kva=75.0 %R=0.670
~ wdg=2 bus=node_2234391631.1.2.3.4 conn=wye Kv=0.2200 Kva=75.0 %R=0.670
New Transformer.324206541_325443464 phases=3 windings=2 Xhl=3.770
~ wdg=1 bus=node_433828015.1.2.3 conn=delta Kv=13.8 Kva=75.0 %R=0.670
~ wdg=2 bus=node_418742261.1.2.3.4 conn=wye Kv=0.2200 Kva=75.0 %R=0.670
New Transformer.324207211_325394282 phases=3 windings=2 Xhl=3.770
~ wdg=1 bus=node_433673595.1.2.3 conn=delta Kv=13.8 Kva=75.0 %R=0.670
~ wdg=2 bus=node_407987921.1.2.3.4 conn=wye Kv=0.2200 Kva=75.0 %R=0.670
New Transformer.324206738_325482688 phases=3 windings=2 Xhl=3.770
~ wdg=1 bus=node_424839181.1.2.3 conn=delta Kv=13.8 Kva=75.0 %R=0.670
~ wdg=2 bus=node_467904830.1.2.3.4 conn=wye Kv=0.2200 Kva=75.0 %R=0.670
New Transformer.324207194_325370424 phases=3 windings=2 Xhl=3.770
~ wdg=1 bus=node_435564820.1.2.3 conn=delta Kv=13.8 Kva=75.0 %R=0.670
~ wdg=2 bus=node_411149503.1.2.3.4 conn=wye Kv=0.2200 Kva=75.0 %R=0.670
New Transformer.324207119_325392476 phases=3 windings=2 Xhl=3.770
~ wdg=1 bus=node_424101089.1.2.3 conn=delta Kv=13.8 Kva=75.0 %R=0.670
~ wdg=2 bus=node_418764580.1.2.3.4 conn=wye Kv=0.2200 Kva=75.0 %R=0.670
New Transformer.324207099_325483883 phases=3 windings=2 Xhl=3.770
~ wdg=1 bus=node_435413125.1.2.3 conn=delta Kv=13.8 Kva=75.0 %R=0.670
~ wdg=2 bus=node_407555897.1.2.3.4 conn=wye Kv=0.2200 Kva=75.0 %R=0.670
New Transformer.1371311075_1417110874 phases=3 windings=2 Xhl=3.770
~ wdg=1 bus=node_1665983203.1.2.3 conn=delta Kv=13.8 Kva=75.0 %R=0.670
~ wdg=2 bus=node_1665983156.1.2.3.4 conn=wye Kv=0.2200 Kva=75.0 %R=0.670
New Transformer.324207560_325372376 phases=3 windings=2 Xhl=3.770
~ wdg=1 bus=node_425327976.1.2.3 conn=delta Kv=13.8 Kva=75.0 %R=0.670
~ wdg=2 bus=node_412096170.1.2.3.4 conn=wye Kv=0.2200 Kva=75.0 %R=0.670
New Transformer.324207577_325484618 phases=3 windings=2 Xhl=3.770
~ wdg=1 bus=node_435731295.1.2.3 conn=delta Kv=13.8 Kva=75.0 %R=0.670
~ wdg=2 bus=node_407555969.1.2.3.4 conn=wye Kv=0.2200 Kva=75.0 %R=0.670
New Transformer.1499013973_1503625686 phases=3 windings=2 Xhl=3.770
~ wdg=1 bus=node_1807172886.1.2.3 conn=delta Kv=13.8 Kva=75.0 %R=0.670
~ wdg=2 bus=node_1807172872.1.2.3.4 conn=wye Kv=0.2200 Kva=75.0 %R=0.670
New Transformer.324207844_325469702 phases=3 windings=2 Xhl=3.770
~ wdg=1 bus=node_427532380.1.2.3 conn=delta Kv=13.8 Kva=75.0 %R=0.670
~ wdg=2 bus=node_407921207.1.2.3.4 conn=wye Kv=0.2200 Kva=75.0 %R=0.670
New Transformer.324207771_325373331 phases=3 windings=2 Xhl=3.770
~ wdg=1 bus=node_427532465.1.2.3 conn=delta Kv=13.8 Kva=75.0 %R=0.670
~ wdg=2 bus=node_411830271.1.2.3.4 conn=wye Kv=0.2200 Kva=75.0 %R=0.670
New Transformer.324208193_998986218 phases=3 windings=2 Xhl=3.770
~ wdg=1 bus=node_426169560.1.2.3 conn=delta Kv=13.8 Kva=75.0 %R=0.670
~ wdg=2 bus=node_407845417.1.2.3.4 conn=wye Kv=0.2200 Kva=75.0 %R=0.670
New Transformer.324207740_325446238 phases=3 windings=2 Xhl=3.770
~ wdg=1 bus=node_433995920.1.2.3 conn=delta Kv=13.8 Kva=75.0 %R=0.670
~ wdg=2 bus=node_409265770.1.2.3.4 conn=wye Kv=0.2200 Kva=75.0 %R=0.670
New Transformer.324208007_325469671 phases=3 windings=2 Xhl=3.770
~ wdg=1 bus=node_430124058.1.2.3 conn=delta Kv=13.8 Kva=75.0 %R=0.670
~ wdg=2 bus=node_418528275.1.2.3.4 conn=wye Kv=0.2200 Kva=75.0 %R=0.670
New Transformer.324208043_448212014 phases=3 windings=2 Xhl=3.770
~ wdg=1 bus=node_435564110.1.2.3 conn=delta Kv=13.8 Kva=75.0 %R=0.670
~ wdg=2 bus=node_407556134.1.2.3.4 conn=wye Kv=0.2200 Kva=75.0 %R=0.670
New Transformer.324209787_325483822 phases=3 windings=2 Xhl=3.770
~ wdg=1 bus=node_436736427.1.2.3 conn=delta Kv=13.8 Kva=75.0 %R=0.670
~ wdg=2 bus=node_407920760.1.2.3.4 conn=wye Kv=0.2200 Kva=75.0 %R=0.670
New Transformer.324209679_325420499 phases=3 windings=2 Xhl=3.770
~ wdg=1 bus=node_435414430.1.2.3 conn=delta Kv=13.8 Kva=75.0 %R=0.670
~ wdg=2 bus=node_407553647.1.2.3.4 conn=wye Kv=0.2200 Kva=75.0 %R=0.670
New Transformer.324209554_325483832 phases=3 windings=2 Xhl=3.770
~ wdg=1 bus=node_425067313.1.2.3 conn=delta Kv=13.8 Kva=75.0 %R=0.670
~ wdg=2 bus=node_407987231.1.2.3.4 conn=wye Kv=0.2200 Kva=75.0 %R=0.670
New Transformer.324209563_1001614146 phases=3 windings=2 Xhl=3.770
~ wdg=1 bus=node_435733329.1.2.3 conn=delta Kv=13.8 Kva=75.0 %R=0.670
~ wdg=2 bus=node_407553980.1.2.3.4 conn=wye Kv=0.2200 Kva=75.0 %R=0.670
New Transformer.324209643_325469442 phases=3 windings=2 Xhl=3.770
~ wdg=1 bus=node_435908419.1.2.3 conn=delta Kv=13.8 Kva=75.0 %R=0.670
~ wdg=2 bus=node_411149533.1.2.3.4 conn=wye Kv=0.2200 Kva=75.0 %R=0.670
New Transformer.324209095_325418457 phases=3 windings=2 Xhl=3.770
~ wdg=1 bus=node_433675290.1.2.3 conn=delta Kv=13.8 Kva=75.0 %R=0.670
~ wdg=2 bus=node_419262884.1.2.3.4 conn=wye Kv=0.2200 Kva=75.0 %R=0.670
New Transformer.324209601_325392294 phases=3 windings=2 Xhl=3.770
~ wdg=1 bus=node_435562871.1.2.3 conn=delta Kv=13.8 Kva=75.0 %R=0.670
~ wdg=2 bus=node_407920397.1.2.3.4 conn=wye Kv=0.2200 Kva=75.0 %R=0.670
New Transformer.2051157977_2051157976 phases=3 windings=2 Xhl=3.770
~ wdg=1 bus=node_2366109981.1.2.3 conn=delta Kv=13.8 Kva=75.0 %R=0.670
~ wdg=2 bus=node_2366110082.1.2.3.4 conn=wye Kv=0.2200 Kva=75.0 %R=0.670
New Transformer.1552276808_1552276807 phases=3 windings=2 Xhl=3.770
~ wdg=1 bus=node_1871767636.1.2.3 conn=delta Kv=13.8 Kva=75.0 %R=0.670
~ wdg=2 bus=node_1871767646.1.2.3.4 conn=wye Kv=0.2200 Kva=75.0 %R=0.670
New Transformer.324519125_325393642 phases=3 windings=2 Xhl=3.770
~ wdg=1 bus=node_435413800.1.2.3 conn=delta Kv=13.8 Kva=75.0 %R=0.670
~ wdg=2 bus=node_407845714.1.2.3.4 conn=wye Kv=0.2200 Kva=75.0 %R=0.670
New Transformer.324519150_325469379 phases=3 windings=2 Xhl=3.770
~ wdg=1 bus=node_424167339.1.2.3 conn=delta Kv=13.8 Kva=75.0 %R=0.670
~ wdg=2 bus=node_407986919.1.2.3.4 conn=wye Kv=0.2200 Kva=75.0 %R=0.670
New Transformer.324519152_325484584 phases=3 windings=2 Xhl=3.770
~ wdg=1 bus=node_426169645.1.2.3 conn=delta Kv=13.8 Kva=75.0 %R=0.670
~ wdg=2 bus=node_407989868.1.2.3.4 conn=wye Kv=0.2200 Kva=75.0 %R=0.670
New Transformer.324519362_325416895 phases=3 windings=2 Xhl=3.770
~ wdg=1 bus=node_425067054.1.2.3 conn=delta Kv=13.8 Kva=75.0 %R=0.670
~ wdg=2 bus=node_411851719.1.2.3.4 conn=wye Kv=0.2200 Kva=75.0 %R=0.670
New Transformer.324519280_325392612 phases=3 windings=2 Xhl=3.770
~ wdg=1 bus=node_424838098.1.2.3 conn=delta Kv=13.8 Kva=75.0 %R=0.670
~ wdg=2 bus=node_407845921.1.2.3.4 conn=wye Kv=0.2200 Kva=75.0 %R=0.670
New Transformer.324519511_325469047 phases=3 windings=2 Xhl=3.770
~ wdg=1 bus=node_425327931.1.2.3 conn=delta Kv=13.8 Kva=75.0 %R=0.670
~ wdg=2 bus=node_407845678.1.2.3.4 conn=wye Kv=0.2200 Kva=75.0 %R=0.670
New Transformer.324522914_610095814 phases=3 windings=2 Xhl=3.770
~ wdg=1 bus=node_427532310.1.2.3 conn=delta Kv=13.8 Kva=75.0 %R=0.670
~ wdg=2 bus=node_418497807.1.2.3.4 conn=wye Kv=0.2200 Kva=75.0 %R=0.670
New Transformer.324519382_325481471 phases=3 windings=2 Xhl=3.770
~ wdg=1 bus=node_442088705.1.2.3 conn=delta Kv=13.8 Kva=75.0 %R=0.670
~ wdg=2 bus=node_404863188.1.2.3.4 conn=wye Kv=0.2200 Kva=75.0 %R=0.670
New Transformer.324519688_758835682 phases=3 windings=2 Xhl=3.770
~ wdg=1 bus=node_435563046.1.2.3 conn=delta Kv=13.8 Kva=75.0 %R=0.670
~ wdg=2 bus=node_407988614.1.2.3.4 conn=wye Kv=0.2200 Kva=75.0 %R=0.670
New Transformer.324520101_325472161 phases=3 windings=2 Xhl=3.770
~ wdg=1 bus=node_435906964.1.2.3 conn=delta Kv=13.8 Kva=75.0 %R=0.670
~ wdg=2 bus=node_407555924.1.2.3.4 conn=wye Kv=0.2200 Kva=75.0 %R=0.670
New Transformer.324519947_325420363 phases=3 windings=2 Xhl=3.770
~ wdg=1 bus=node_424132321.1.2.3 conn=delta Kv=13.8 Kva=75.0 %R=0.670
~ wdg=2 bus=node_407556074.1.2.3.4 conn=wye Kv=0.2200 Kva=75.0 %R=0.670
New Transformer.324519882_325420385 phases=3 windings=2 Xhl=3.770
~ wdg=1 bus=node_425328281.1.2.3 conn=delta Kv=13.8 Kva=75.0 %R=0.670
~ wdg=2 bus=node_407846410.1.2.3.4 conn=wye Kv=0.2200 Kva=75.0 %R=0.670
New Transformer.324520038_325443568 phases=3 windings=2 Xhl=3.770
~ wdg=1 bus=node_424945292.1.2.3 conn=delta Kv=13.8 Kva=75.0 %R=0.670
~ wdg=2 bus=node_418706248.1.2.3.4 conn=wye Kv=0.2200 Kva=75.0 %R=0.670
New Transformer.324520341_325370844 phases=3 windings=2 Xhl=3.770
~ wdg=1 bus=node_442088605.1.2.3 conn=delta Kv=13.8 Kva=75.0 %R=0.670
~ wdg=2 bus=node_407846404.1.2.3.4 conn=wye Kv=0.2200 Kva=75.0 %R=0.670
New Transformer.324523265_325469666 phases=3 windings=2 Xhl=3.770
~ wdg=1 bus=node_424132886.1.2.3 conn=delta Kv=13.8 Kva=75.0 %R=0.670
~ wdg=2 bus=node_512335303.1.2.3.4 conn=wye Kv=0.2200 Kva=75.0 %R=0.670
New Transformer.324522948_325443545 phases=3 windings=2 Xhl=3.770
~ wdg=1 bus=node_424132600.1.2.3 conn=delta Kv=13.8 Kva=75.0 %R=0.670
~ wdg=2 bus=node_418468704.1.2.3.4 conn=wye Kv=0.2200 Kva=75.0 %R=0.670
New Transformer.324522985_325469371 phases=3 windings=2 Xhl=3.770
~ wdg=1 bus=node_436074779.1.2.3 conn=delta Kv=13.8 Kva=75.0 %R=0.670
~ wdg=2 bus=node_407920385.1.2.3.4 conn=wye Kv=0.2200 Kva=75.0 %R=0.670
New Transformer.324520646_325481393 phases=3 windings=2 Xhl=3.770
~ wdg=1 bus=node_433828940.1.2.3 conn=delta Kv=13.8 Kva=75.0 %R=0.670
~ wdg=2 bus=node_407921012.1.2.3.4 conn=wye Kv=0.2200 Kva=75.0 %R=0.670
New Transformer.324520797_325370762 phases=3 windings=2 Xhl=3.770
~ wdg=1 bus=node_424838907.1.2.3 conn=delta Kv=13.8 Kva=75.0 %R=0.670
~ wdg=2 bus=node_418706368.1.2.3.4 conn=wye Kv=0.2200 Kva=75.0 %R=0.670
New Transformer.324520735_325469638 phases=3 windings=2 Xhl=3.770
~ wdg=1 bus=node_435731630.1.2.3 conn=delta Kv=13.8 Kva=75.0 %R=0.670
~ wdg=2 bus=node_407554241.1.2.3.4 conn=wye Kv=0.2200 Kva=75.0 %R=0.670
New Transformer.324521409_325392605 phases=3 windings=2 Xhl=3.770
~ wdg=1 bus=node_424838157.1.2.3 conn=delta Kv=13.8 Kva=75.0 %R=0.670
~ wdg=2 bus=node_404862261.1.2.3.4 conn=wye Kv=0.2200 Kva=75.0 %R=0.670
New Transformer.324521188_325391962 phases=3 windings=2 Xhl=3.770
~ wdg=1 bus=node_433831213.1.2.3 conn=delta Kv=13.8 Kva=75.0 %R=0.670
~ wdg=2 bus=node_407556155.1.2.3.4 conn=wye Kv=0.2200 Kva=75.0 %R=0.670
New Transformer.324521304_325394274 phases=3 windings=2 Xhl=3.770
~ wdg=1 bus=node_424945382.1.2.3 conn=delta Kv=13.8 Kva=75.0 %R=0.670
~ wdg=2 bus=node_418706365.1.2.3.4 conn=wye Kv=0.2200 Kva=75.0 %R=0.670
New Transformer.324521223_325394250 phases=3 windings=2 Xhl=3.770
~ wdg=1 bus=node_430124478.1.2.3 conn=delta Kv=13.8 Kva=75.0 %R=0.670
~ wdg=2 bus=node_418468512.1.2.3.4 conn=wye Kv=0.2200 Kva=75.0 %R=0.670
New Transformer.324521576_325371898 phases=3 windings=2 Xhl=3.770
~ wdg=1 bus=node_435562390.1.2.3 conn=delta Kv=13.8 Kva=75.0 %R=0.670
~ wdg=2 bus=node_409345536.1.2.3.4 conn=wye Kv=0.2200 Kva=75.0 %R=0.670
New Transformer.324521690_1615488825 phases=3 windings=2 Xhl=3.770
~ wdg=1 bus=node_424838068.1.2.3 conn=delta Kv=13.8 Kva=75.0 %R=0.670
~ wdg=2 bus=node_407847073.1.2.3.4 conn=wye Kv=0.2200 Kva=75.0 %R=0.670
New Transformer.324521767_325469500 phases=3 windings=2 Xhl=3.770
~ wdg=1 bus=node_425179232.1.2.3 conn=delta Kv=13.8 Kva=75.0 %R=0.670
~ wdg=2 bus=node_420667808.1.2.3.4 conn=wye Kv=0.2200 Kva=75.0 %R=0.670
New Transformer.452244113_452244112 phases=3 windings=2 Xhl=3.770
~ wdg=1 bus=node_436565051.1.2.3 conn=delta Kv=13.8 Kva=75.0 %R=0.670
~ wdg=2 bus=node_447293097.1.2.3.4 conn=wye Kv=0.2200 Kva=75.0 %R=0.670
New Transformer.457388293_457388292 phases=3 windings=2 Xhl=3.770
~ wdg=1 bus=node_425327017.1.2.3 conn=delta Kv=13.8 Kva=75.0 %R=0.670
~ wdg=2 bus=node_464617491.1.2.3.4 conn=wye Kv=0.2200 Kva=75.0 %R=0.670
New Transformer.460415618_2092951445 phases=3 windings=2 Xhl=3.770
~ wdg=1 bus=node_730087422.1.2.3 conn=delta Kv=13.8 Kva=75.0 %R=0.670
~ wdg=2 bus=node_730087411.1.2.3.4 conn=wye Kv=0.2200 Kva=75.0 %R=0.670
New Transformer.456181720_456181719 phases=3 windings=2 Xhl=3.770
~ wdg=1 bus=node_435907814.1.2.3 conn=delta Kv=13.8 Kva=75.0 %R=0.670
~ wdg=2 bus=node_420469760.1.2.3.4 conn=wye Kv=0.2200 Kva=75.0 %R=0.670
New Transformer.2709210080_2709210081 phases=3 windings=2 Xhl=4.960
~ wdg=1 bus=node_2893482912.1.2.3 conn=delta Kv=13.8 Kva=75.0 %R=0.305
~ wdg=2 bus=node_2893482171.1.2.3.4 conn=wye Kv=0.2200 Kva=75.0 %R=0.305
New Transformer.2720610833_2720610834 phases=3 windings=2 Xhl=3.770
~ wdg=1 bus=node_2912294676.1.2.3 conn=delta Kv=13.8 Kva=75.0 %R=0.670
~ wdg=2 bus=node_2912294433.1.2.3.4 conn=wye Kv=0.2200 Kva=75.0 %R=0.670
New Transformer.2720610709_2720610710 phases=3 windings=2 Xhl=3.770
~ wdg=1 bus=node_2912294803.1.2.3 conn=delta Kv=13.8 Kva=75.0 %R=0.670
~ wdg=2 bus=node_2912294036.1.2.3.4 conn=wye Kv=0.2200 Kva=75.0 %R=0.670
New Transformer.2720610854_2720610855 phases=3 windings=2 Xhl=3.770
~ wdg=1 bus=node_2912294758.1.2.3 conn=delta Kv=13.8 Kva=75.0 %R=0.670
~ wdg=2 bus=node_2912294215.1.2.3.4 conn=wye Kv=0.2200 Kva=75.0 %R=0.670
New Transformer.2538334339_2538334338 phases=3 windings=2 Xhl=4.960
~ wdg=1 bus=node_2965098570.1.2.3 conn=delta Kv=13.8 Kva=75.0 %R=0.305
~ wdg=2 bus=node_2965097632.1.2.3.4 conn=wye Kv=0.2200 Kva=75.0 %R=0.305
New Transformer.324832660_325370186 phases=3 windings=2 Xhl=3.700
~ wdg=1 bus=node_435564520.1.2.3 conn=delta Kv=13.8 Kva=45.0 %R=0.760
~ wdg=2 bus=node_407556347.1.2.3.4 conn=wye Kv=0.2200 Kva=45.0 %R=0.760
New Transformer.324832666_325393820 phases=3 windings=2 Xhl=3.700
~ wdg=1 bus=node_436232453.1.2.3 conn=delta Kv=13.8 Kva=45.0 %R=0.760
~ wdg=2 bus=node_407917208.1.2.3.4 conn=wye Kv=0.2200 Kva=45.0 %R=0.760
New Transformer.324832585_325443913 phases=3 windings=2 Xhl=3.700
~ wdg=1 bus=node_424134389.1.2.3 conn=delta Kv=13.8 Kva=45.0 %R=0.760
~ wdg=2 bus=node_410084395.1.2.3.4 conn=wye Kv=0.2200 Kva=45.0 %R=0.760
New Transformer.324833455_325420369 phases=3 windings=2 Xhl=3.700
~ wdg=1 bus=node_424837423.1.2.3 conn=delta Kv=13.8 Kva=45.0 %R=0.760
~ wdg=2 bus=node_418528101.1.2.3.4 conn=wye Kv=0.2200 Kva=45.0 %R=0.760
New Transformer.324833938_325394340 phases=3 windings=2 Xhl=3.700
~ wdg=1 bus=node_435415805.1.2.3 conn=delta Kv=13.8 Kva=45.0 %R=0.760
~ wdg=2 bus=node_418497942.1.2.3.4 conn=wye Kv=0.2200 Kva=45.0 %R=0.760
New Transformer.988904387_988904403 phases=3 windings=2 Xhl=3.700
~ wdg=1 bus=node_1250800608.1.2.3 conn=delta Kv=13.8 Kva=45.0 %R=0.760
~ wdg=2 bus=node_1250799906.1.2.3.4 conn=wye Kv=0.2200 Kva=45.0 %R=0.760
New Transformer.324834038_325443536 phases=3 windings=2 Xhl=3.700
~ wdg=1 bus=node_424132225.1.2.3 conn=delta Kv=13.8 Kva=45.0 %R=0.760
~ wdg=2 bus=node_407554793.1.2.3.4 conn=wye Kv=0.2200 Kva=45.0 %R=0.760
New Transformer.324834365_325484608 phases=3 windings=2 Xhl=3.700
~ wdg=1 bus=node_424838038.1.2.3 conn=delta Kv=13.8 Kva=45.0 %R=0.760
~ wdg=2 bus=node_407847697.1.2.3.4 conn=wye Kv=0.2200 Kva=45.0 %R=0.760
New Transformer.324834545_325370842 phases=3 windings=2 Xhl=3.700
~ wdg=1 bus=node_424132836.1.2.3 conn=delta Kv=13.8 Kva=45.0 %R=0.760
~ wdg=2 bus=node_404863185.1.2.3.4 conn=wye Kv=0.2200 Kva=45.0 %R=0.760
New Transformer.324834530_325394251 phases=3 windings=2 Xhl=3.700
~ wdg=1 bus=node_424133710.1.2.3 conn=delta Kv=13.8 Kva=45.0 %R=0.760
~ wdg=2 bus=node_418468968.1.2.3.4 conn=wye Kv=0.2200 Kva=45.0 %R=0.760
New Transformer.324834493_325372835 phases=3 windings=2 Xhl=3.700
~ wdg=1 bus=node_430124762.1.2.3 conn=delta Kv=13.8 Kva=45.0 %R=0.760
~ wdg=2 bus=node_410020511.1.2.3.4 conn=wye Kv=0.2200 Kva=45.0 %R=0.760
New Transformer.324957192_325393596 phases=3 windings=2 Xhl=3.700
~ wdg=1 bus=node_424838603.1.2.3 conn=delta Kv=13.8 Kva=45.0 %R=0.760
~ wdg=2 bus=node_407918609.1.2.3.4 conn=wye Kv=0.2200 Kva=45.0 %R=0.760
New Transformer.324834659_325419795 phases=3 windings=2 Xhl=3.700
~ wdg=1 bus=node_424132361.1.2.3 conn=delta Kv=13.8 Kva=45.0 %R=0.760
~ wdg=2 bus=node_408078351.1.2.3.4 conn=wye Kv=0.2200 Kva=45.0 %R=0.760
New Transformer.324957323_325443800 phases=3 windings=2 Xhl=3.700
~ wdg=1 bus=node_425326987.1.2.3 conn=delta Kv=13.8 Kva=45.0 %R=0.760
~ wdg=2 bus=node_410139886.1.2.3.4 conn=wye Kv=0.2200 Kva=45.0 %R=0.760
New Transformer.324957428_325370815 phases=3 windings=2 Xhl=3.700
~ wdg=1 bus=node_424133550.1.2.3 conn=delta Kv=13.8 Kva=45.0 %R=0.760
~ wdg=2 bus=node_407554397.1.2.3.4 conn=wye Kv=0.2200 Kva=45.0 %R=0.760
New Transformer.324834945_325445355 phases=3 windings=2 Xhl=3.700
~ wdg=1 bus=node_425484035.1.2.3 conn=delta Kv=13.8 Kva=45.0 %R=0.760
~ wdg=2 bus=node_410085376.1.2.3.4 conn=wye Kv=0.2200 Kva=45.0 %R=0.760
New Transformer.324957654_325394236 phases=3 windings=2 Xhl=3.700
~ wdg=1 bus=node_435907328.1.2.3 conn=delta Kv=13.8 Kva=45.0 %R=0.760
~ wdg=2 bus=node_407554889.1.2.3.4 conn=wye Kv=0.2200 Kva=45.0 %R=0.760
New Transformer.324835339_325393638 phases=3 windings=2 Xhl=3.700
~ wdg=1 bus=node_436565036.1.2.3 conn=delta Kv=13.8 Kva=45.0 %R=0.760
~ wdg=2 bus=node_407845003.1.2.3.4 conn=wye Kv=0.2200 Kva=45.0 %R=0.760
New Transformer.324835359_325482071 phases=3 windings=2 Xhl=3.700
~ wdg=1 bus=node_425180092.1.2.3 conn=delta Kv=13.8 Kva=45.0 %R=0.760
~ wdg=2 bus=node_420889516.1.2.3.4 conn=wye Kv=0.2200 Kva=45.0 %R=0.760
New Transformer.324958179_1758053776 phases=3 windings=2 Xhl=3.700
~ wdg=1 bus=node_424132016.1.2.3 conn=delta Kv=13.8 Kva=45.0 %R=0.760
~ wdg=2 bus=node_407846998.1.2.3.4 conn=wye Kv=0.2200 Kva=45.0 %R=0.760
New Transformer.324958185_325445356 phases=3 windings=2 Xhl=3.700
~ wdg=1 bus=node_425327872.1.2.3 conn=delta Kv=13.8 Kva=45.0 %R=0.760
~ wdg=2 bus=node_412047119.1.2.3.4 conn=wye Kv=0.2200 Kva=45.0 %R=0.760
New Transformer.324835624_325444179 phases=3 windings=2 Xhl=3.700
~ wdg=1 bus=node_430125212.1.2.3 conn=delta Kv=13.8 Kva=45.0 %R=0.760
~ wdg=2 bus=node_420915053.1.2.3.4 conn=wye Kv=0.2200 Kva=45.0 %R=0.760
New Transformer.324835626_325470974 phases=3 windings=2 Xhl=3.700
~ wdg=1 bus=node_424838723.1.2.3 conn=delta Kv=13.8 Kva=45.0 %R=0.760
~ wdg=2 bus=node_404862276.1.2.3.4 conn=wye Kv=0.2200 Kva=45.0 %R=0.760
New Transformer.324835659_325469354 phases=3 windings=2 Xhl=3.700
~ wdg=1 bus=node_435906919.1.2.3 conn=delta Kv=13.8 Kva=45.0 %R=0.760
~ wdg=2 bus=node_411147196.1.2.3.4 conn=wye Kv=0.2200 Kva=45.0 %R=0.760
New Transformer.324835746_325394275 phases=3 windings=2 Xhl=3.700
~ wdg=1 bus=node_424132156.1.2.3 conn=delta Kv=13.8 Kva=45.0 %R=0.760
~ wdg=2 bus=node_418706584.1.2.3.4 conn=wye Kv=0.2200 Kva=45.0 %R=0.760
New Transformer.324958415_325370681 phases=3 windings=2 Xhl=3.700
~ wdg=1 bus=node_435908324.1.2.3 conn=delta Kv=13.8 Kva=45.0 %R=0.760
~ wdg=2 bus=node_407920631.1.2.3.4 conn=wye Kv=0.2200 Kva=45.0 %R=0.760
New Transformer.324835800_325372569 phases=3 windings=2 Xhl=3.700
~ wdg=1 bus=node_430124811.1.2.3 conn=delta Kv=13.8 Kva=45.0 %R=0.760
~ wdg=2 bus=node_420926365.1.2.3.4 conn=wye Kv=0.2200 Kva=45.0 %R=0.760
New Transformer.324958568_325443594 phases=3 windings=2 Xhl=3.700
~ wdg=1 bus=node_430481771.1.2.3 conn=delta Kv=13.8 Kva=45.0 %R=0.760
~ wdg=2 bus=node_407989871.1.2.3.4 conn=wye Kv=0.2200 Kva=45.0 %R=0.760
New Transformer.324958713_325391913 phases=3 windings=2 Xhl=3.700
~ wdg=1 bus=node_427678259.1.2.3 conn=delta Kv=13.8 Kva=45.0 %R=0.760
~ wdg=2 bus=node_407845696.1.2.3.4 conn=wye Kv=0.2200 Kva=45.0 %R=0.760
New Transformer.324958741_325446138 phases=3 windings=2 Xhl=3.700
~ wdg=1 bus=node_424131825.1.2.3 conn=delta Kv=13.8 Kva=45.0 %R=0.760
~ wdg=2 bus=node_411804211.1.2.3.4 conn=wye Kv=0.2200 Kva=45.0 %R=0.760
New Transformer.324836007_325420378 phases=3 windings=2 Xhl=3.700
~ wdg=1 bus=node_424132211.1.2.3 conn=delta Kv=13.8 Kva=45.0 %R=0.760
~ wdg=2 bus=node_404862267.1.2.3.4 conn=wye Kv=0.2200 Kva=45.0 %R=0.760
New Transformer.1020958639_1020958638 phases=3 windings=2 Xhl=3.700
~ wdg=1 bus=node_828364372.1.2.3 conn=delta Kv=13.8 Kva=45.0 %R=0.760
~ wdg=2 bus=node_828364467.1.2.3.4 conn=wye Kv=0.2200 Kva=45.0 %R=0.760
New Transformer.324836192_325370833 phases=3 windings=2 Xhl=3.700
~ wdg=1 bus=node_430124248.1.2.3 conn=delta Kv=13.8 Kva=45.0 %R=0.760
~ wdg=2 bus=node_418468917.1.2.3.4 conn=wye Kv=0.2200 Kva=45.0 %R=0.760
New Transformer.324836197_325445395 phases=3 windings=2 Xhl=3.700
~ wdg=1 bus=node_424132455.1.2.3 conn=delta Kv=13.8 Kva=45.0 %R=0.760
~ wdg=2 bus=node_407556068.1.2.3.4 conn=wye Kv=0.2200 Kva=45.0 %R=0.760
New Transformer.324958998_325469659 phases=3 windings=2 Xhl=3.700
~ wdg=1 bus=node_424133889.1.2.3 conn=delta Kv=13.8 Kva=45.0 %R=0.760
~ wdg=2 bus=node_407554256.1.2.3.4 conn=wye Kv=0.2200 Kva=45.0 %R=0.760
New Transformer.324836106_325472179 phases=3 windings=2 Xhl=3.700
~ wdg=1 bus=node_435733174.1.2.3 conn=delta Kv=13.8 Kva=45.0 %R=0.760
~ wdg=2 bus=node_407845336.1.2.3.4 conn=wye Kv=0.2200 Kva=45.0 %R=0.760
New Transformer.324836358_325370770 phases=3 windings=2 Xhl=3.700
~ wdg=1 bus=node_435732959.1.2.3 conn=delta Kv=13.8 Kva=45.0 %R=0.760
~ wdg=2 bus=node_404862807.1.2.3.4 conn=wye Kv=0.2200 Kva=45.0 %R=0.760
New Transformer.324959163_325444712 phases=3 windings=2 Xhl=3.700
~ wdg=1 bus=node_436565021.1.2.3 conn=delta Kv=13.8 Kva=45.0 %R=0.760
~ wdg=2 bus=node_409404127.1.2.3.4 conn=wye Kv=0.2200 Kva=45.0 %R=0.760
New Transformer.325086008_325392299 phases=3 windings=2 Xhl=3.700
~ wdg=1 bus=node_424167349.1.2.3 conn=delta Kv=13.8 Kva=45.0 %R=0.760
~ wdg=2 bus=node_448566232.1.2.3.4 conn=wye Kv=0.2200 Kva=45.0 %R=0.760
New Transformer.325085983_325372090 phases=3 windings=2 Xhl=3.700
~ wdg=1 bus=node_424837813.1.2.3 conn=delta Kv=13.8 Kva=45.0 %R=0.760
~ wdg=2 bus=node_409042248.1.2.3.4 conn=wye Kv=0.2200 Kva=45.0 %R=0.760
New Transformer.325085980_325373400 phases=3 windings=2 Xhl=3.700
~ wdg=1 bus=node_425067009.1.2.3 conn=delta Kv=13.8 Kva=45.0 %R=0.760
~ wdg=2 bus=node_420434386.1.2.3.4 conn=wye Kv=0.2200 Kva=45.0 %R=0.760
New Transformer.324959231_325481488 phases=3 windings=2 Xhl=3.700
~ wdg=1 bus=node_425327776.1.2.3 conn=delta Kv=13.8 Kva=45.0 %R=0.760
~ wdg=2 bus=node_418471581.1.2.3.4 conn=wye Kv=0.2200 Kva=45.0 %R=0.760
New Transformer.324959368_325482076 phases=3 windings=2 Xhl=3.700
~ wdg=1 bus=node_427355437.1.2.3 conn=delta Kv=13.8 Kva=45.0 %R=0.760
~ wdg=2 bus=node_412010797.1.2.3.4 conn=wye Kv=0.2200 Kva=45.0 %R=0.760
New Transformer.324836579_325417155 phases=3 windings=2 Xhl=3.700
~ wdg=1 bus=node_425327787.1.2.3 conn=delta Kv=13.8 Kva=45.0 %R=0.760
~ wdg=2 bus=node_420037273.1.2.3.4 conn=wye Kv=0.2200 Kva=45.0 %R=0.760
New Transformer.324836446_325417615 phases=3 windings=2 Xhl=3.700
~ wdg=1 bus=node_424132176.1.2.3 conn=delta Kv=13.8 Kva=45.0 %R=0.760
~ wdg=2 bus=node_407846053.1.2.3.4 conn=wye Kv=0.2200 Kva=45.0 %R=0.760
New Transformer.324959519_325446307 phases=3 windings=2 Xhl=3.700
~ wdg=1 bus=node_436073514.1.2.3 conn=delta Kv=13.8 Kva=45.0 %R=0.760
~ wdg=2 bus=node_411685643.1.2.3.4 conn=wye Kv=0.2200 Kva=45.0 %R=0.760
New Transformer.325086193_325392593 phases=3 windings=2 Xhl=3.700
~ wdg=1 bus=node_435562406.1.2.3 conn=delta Kv=13.8 Kva=45.0 %R=0.760
~ wdg=2 bus=node_407556077.1.2.3.4 conn=wye Kv=0.2200 Kva=45.0 %R=0.760
New Transformer.325086438_2262998116 phases=3 windings=2 Xhl=3.700
~ wdg=1 bus=node_435561941.1.2.3 conn=delta Kv=13.8 Kva=45.0 %R=0.760
~ wdg=2 bus=node_418497588.1.2.3.4 conn=wye Kv=0.2200 Kva=45.0 %R=0.760
New Transformer.324959626_325484617 phases=3 windings=2 Xhl=3.700
~ wdg=1 bus=node_424134119.1.2.3 conn=delta Kv=13.8 Kva=45.0 %R=0.760
~ wdg=2 bus=node_407554799.1.2.3.4 conn=wye Kv=0.2200 Kva=45.0 %R=0.760
New Transformer.325086341_325443554 phases=3 windings=2 Xhl=3.700
~ wdg=1 bus=node_424838678.1.2.3 conn=delta Kv=13.8 Kva=45.0 %R=0.760
~ wdg=2 bus=node_404863167.1.2.3.4 conn=wye Kv=0.2200 Kva=45.0 %R=0.760
New Transformer.325086350_325393740 phases=3 windings=2 Xhl=3.700
~ wdg=1 bus=node_424945232.1.2.3 conn=delta Kv=13.8 Kva=45.0 %R=0.760
~ wdg=2 bus=node_418705387.1.2.3.4 conn=wye Kv=0.2200 Kva=45.0 %R=0.760
New Transformer.325086396_325394266 phases=3 windings=2 Xhl=3.700
~ wdg=1 bus=node_425328201.1.2.3 conn=delta Kv=13.8 Kva=45.0 %R=0.760
~ wdg=2 bus=node_407846230.1.2.3.4 conn=wye Kv=0.2200 Kva=45.0 %R=0.760
New Transformer.324836791_325443869 phases=3 windings=2 Xhl=3.700
~ wdg=1 bus=node_427535873.1.2.3 conn=delta Kv=13.8 Kva=45.0 %R=0.760
~ wdg=2 bus=node_410140726.1.2.3.4 conn=wye Kv=0.2200 Kva=45.0 %R=0.760
New Transformer.324959716_325445361 phases=3 windings=2 Xhl=3.700
~ wdg=1 bus=node_2081624122.1.2.3 conn=delta Kv=13.8 Kva=45.0 %R=0.760
~ wdg=2 bus=node_2081624030.1.2.3.4 conn=wye Kv=0.2200 Kva=45.0 %R=0.760
New Transformer.1038259357_1038259356 phases=3 windings=2 Xhl=3.700
~ wdg=1 bus=node_1304783747.1.2.3 conn=delta Kv=13.8 Kva=45.0 %R=0.760
~ wdg=2 bus=node_1304783631.1.2.3.4 conn=wye Kv=0.2200 Kva=45.0 %R=0.760
New Transformer.325086568_325481732 phases=3 windings=2 Xhl=3.700
~ wdg=1 bus=node_424134139.1.2.3 conn=delta Kv=13.8 Kva=45.0 %R=0.760
~ wdg=2 bus=node_410085031.1.2.3.4 conn=wye Kv=0.2200 Kva=45.0 %R=0.760
New Transformer.325086494_2760209279 phases=3 windings=2 Xhl=4.960
~ wdg=1 bus=node_435733584.1.2.3 conn=delta Kv=13.8 Kva=45.0 %R=0.305
~ wdg=2 bus=node_407844961.1.2.3.4 conn=wye Kv=0.2200 Kva=45.0 %R=0.305
New Transformer.324959865_325393656 phases=3 windings=2 Xhl=3.700
~ wdg=1 bus=node_424131417.1.2.3 conn=delta Kv=13.8 Kva=45.0 %R=0.760
~ wdg=2 bus=node_418767226.1.2.3.4 conn=wye Kv=0.2200 Kva=45.0 %R=0.760
New Transformer.325086696_2452337755 phases=3 windings=2 Xhl=3.700
~ wdg=1 bus=node_424131506.1.2.3 conn=delta Kv=13.8 Kva=45.0 %R=0.760
~ wdg=2 bus=node_420956237.1.2.3.4 conn=wye Kv=0.2200 Kva=45.0 %R=0.760
New Transformer.325086765_325391870 phases=3 windings=2 Xhl=3.700
~ wdg=1 bus=node_435909019.1.2.3 conn=delta Kv=13.8 Kva=45.0 %R=0.760
~ wdg=2 bus=node_407987261.1.2.3.4 conn=wye Kv=0.2200 Kva=45.0 %R=0.760
New Transformer.325086750_325420484 phases=3 windings=2 Xhl=3.700
~ wdg=1 bus=node_435563760.1.2.3 conn=delta Kv=13.8 Kva=45.0 %R=0.760
~ wdg=2 bus=node_410910501.1.2.3.4 conn=wye Kv=0.2200 Kva=45.0 %R=0.760
New Transformer.325086712_325469331 phases=3 windings=2 Xhl=3.700
~ wdg=1 bus=node_435732145.1.2.3 conn=delta Kv=13.8 Kva=45.0 %R=0.760
~ wdg=2 bus=node_411146620.1.2.3.4 conn=wye Kv=0.2200 Kva=45.0 %R=0.760
New Transformer.325086881_325373520 phases=3 windings=2 Xhl=3.700
~ wdg=1 bus=node_433673750.1.2.3 conn=delta Kv=13.8 Kva=45.0 %R=0.760
~ wdg=2 bus=node_411683276.1.2.3.4 conn=wye Kv=0.2200 Kva=45.0 %R=0.760
New Transformer.325086884_325420375 phases=3 windings=2 Xhl=3.700
~ wdg=1 bus=node_424132030.1.2.3 conn=delta Kv=13.8 Kva=45.0 %R=0.760
~ wdg=2 bus=node_404861844.1.2.3.4 conn=wye Kv=0.2200 Kva=45.0 %R=0.760
New Transformer.325086835_325445261 phases=3 windings=2 Xhl=3.700
~ wdg=1 bus=node_426361617.1.2.3 conn=delta Kv=13.8 Kva=45.0 %R=0.760
~ wdg=2 bus=node_410139457.1.2.3.4 conn=wye Kv=0.2200 Kva=45.0 %R=0.760
New Transformer.325086821_325372754 phases=3 windings=2 Xhl=3.700
~ wdg=1 bus=node_430124378.1.2.3 conn=delta Kv=13.8 Kva=45.0 %R=0.760
~ wdg=2 bus=node_469706897.1.2.3.4 conn=wye Kv=0.2200 Kva=45.0 %R=0.760
New Transformer.325086825_325371927 phases=3 windings=2 Xhl=3.700
~ wdg=1 bus=node_427355637.1.2.3 conn=delta Kv=13.8 Kva=45.0 %R=0.760
~ wdg=2 bus=node_411804208.1.2.3.4 conn=wye Kv=0.2200 Kva=45.0 %R=0.760
New Transformer.324960219_325419727 phases=3 windings=2 Xhl=3.700
~ wdg=1 bus=node_434151858.1.2.3 conn=delta Kv=13.8 Kva=45.0 %R=0.760
~ wdg=2 bus=node_418739975.1.2.3.4 conn=wye Kv=0.2200 Kva=45.0 %R=0.760
New Transformer.325086968_325442866 phases=3 windings=2 Xhl=3.700
~ wdg=1 bus=node_430124062.1.2.3 conn=delta Kv=13.8 Kva=45.0 %R=0.760
~ wdg=2 bus=node_418588362.1.2.3.4 conn=wye Kv=0.2200 Kva=45.0 %R=0.760
New Transformer.325086983_325482447 phases=3 windings=2 Xhl=3.700
~ wdg=1 bus=node_424837893.1.2.3 conn=delta Kv=13.8 Kva=45.0 %R=0.760
~ wdg=2 bus=node_420034960.1.2.3.4 conn=wye Kv=0.2200 Kva=45.0 %R=0.760
New Transformer.324960486_325443789 phases=3 windings=2 Xhl=3.700
~ wdg=1 bus=node_425327992.1.2.3 conn=delta Kv=13.8 Kva=45.0 %R=0.760
~ wdg=2 bus=node_412077677.1.2.3.4 conn=wye Kv=0.2200 Kva=45.0 %R=0.760
New Transformer.324960436_325481765 phases=3 windings=2 Xhl=3.700
~ wdg=1 bus=node_430124393.1.2.3 conn=delta Kv=13.8 Kva=45.0 %R=0.760
~ wdg=2 bus=node_420927631.1.2.3.4 conn=wye Kv=0.2200 Kva=45.0 %R=0.760
...